/*--------------------------------*- C++ -*----------------------------------*\
  =========                 |
  \\      /  F ield         | OpenFOAM: The Open Source CFD Toolbox
   \\    /   O peration     | Website:  https://openfoam.org
    \\  /    A nd           | Version:  8
     \\/     M anipulation  |
\*---------------------------------------------------------------------------*/
/*   Windows 32 and 64 bit porting by blueCAPE: http://www.bluecape.com.pt   *\
|  Based on Windows porting (2.0.x v4) by Symscape: http://www.symscape.com   |
\*---------------------------------------------------------------------------*/
FoamFile
{
    version     2.0;
    format      ascii;
    class       polyBoundaryMesh;
    location    "constant/polyMesh";
    object      boundary;
}
// * * * * * * * * * * * * * * * * * * * * * * * * * * * * * * * * * * * * * //

5
(
    top
    {
        type            patch;
        nFaces          3528;
        startFace       1425827;
    }
    sides
    {
        type            patch;
        nFaces          3696;
        startFace       1429355;
    }
    outlet
    {
        type            patch;
        nFaces          1800;
        startFace       1433051;
    }
    inlet
    {
        type            patch;
        nFaces          924;
        startFace       1434851;
    }
    ground
    {
        type            wall;
        inGroups        List<word> 1(wall);
        nFaces          18678;
        startFace       1435775;
    }
)

// ************************************************************************* //
